
  EPA STORM WATER MANAGEMENT MODEL - VERSION 5.1 (Build 5.3.0.dev0)
  --------------------------------------------------------------

  A simple network generated with Viper. 
  
  
  *********************
  Rainfall File Summary
  *********************
  Station    First        Last         Recording   Periods    Periods    Periods
  ID         Date         Date         Frequency  w/Precip    Missing    Malfunc.
  -------------------------------------------------------------------------------
  1          01/01/2000   01/01/2000       5 min        24          0          0

  
  *********************************************************
  NOTE: The summary statistics displayed in this report are
  based on results found at every computational time step,  
  not just on results from each reporting time step.
  *********************************************************
  
  ****************
  Analysis Options
  ****************
  Flow Units ............... CMS
  Process Models:
    Rainfall/Runoff ........ YES
    RDII ................... NO
    Snowmelt ............... NO
    Groundwater ............ NO
    Flow Routing ........... YES
    Ponding Allowed ........ NO
    Water Quality .......... NO
  Infiltration Method ...... HORTON
  Flow Routing Method ...... DYNWAVE
  Surcharge Method ......... EXTRAN
  Starting Date ............ 01/01/2000 00:00:00
  Ending Date .............. 01/01/2000 06:00:00
  Antecedent Dry Days ...... 0.0
  Report Time Step ......... 00:05:00
  Wet Time Step ............ 00:05:00
  Dry Time Step ............ 01:00:00
  Routing Time Step ........ 1.00 sec
  Variable Time Step ....... YES
  Maximum Trials ........... 8
  Number of Threads ........ 1
  Head Tolerance ........... 0.001500 m
  
  
  **************************        Volume         Depth
  Runoff Quantity Continuity     hectare-m            mm
  **************************     ---------       -------
  Total Precipitation ......        13.744        72.750
  Evaporation Loss .........         0.000         0.000
  Infiltration Loss ........         3.140        16.619
  Surface Runoff ...........        10.567        55.935
  Final Storage ............         0.209         1.107
  Continuity Error (%) .....        -1.252
  
  
  **************************        Volume        Volume
  Flow Routing Continuity        hectare-m      10^6 ltr
  **************************     ---------     ---------
  Dry Weather Inflow .......         0.000         0.000
  Wet Weather Inflow .......        10.566       105.664
  Groundwater Inflow .......         0.000         0.000
  RDII Inflow ..............         0.000         0.000
  External Inflow ..........         0.000         0.000
  External Outflow .........         9.204        92.040
  Flooding Loss ............         1.366        13.665
  Evaporation Loss .........         0.000         0.000
  Exfiltration Loss ........         0.000         0.000
  Initial Stored Volume ....         0.000         0.000
  Final Stored Volume ......         0.003         0.029
  Continuity Error (%) .....        -0.066
  
  
  *************************
  Highest Continuity Errors
  *************************
  Node J_270049621 (-5.15%)
  Node J_1141967558 (3.40%)
  Node J_4041725991 (-2.96%)
  Node J_2015055541 (-2.43%)
  Node J_414255432 (-2.43%)
  
  
  ***************************
  Time-Step Critical Elements
  ***************************
  Link 774 (7.94%)
  Link 494 (1.77%)
  Link 481 (1.59%)
  
  
  ********************************
  Highest Flow Instability Indexes
  ********************************
  Link 548 (22)
  Link 526 (22)
  Link 78 (16)
  Link 624 (16)
  Link 252 (15)
  
  
  *************************
  Routing Time Step Summary
  *************************
  Minimum Time Step           :     0.10 sec
  Average Time Step           :     0.96 sec
  Maximum Time Step           :     1.00 sec
  Percent in Steady State     :     0.00
  Average Iterations per Step :     2.58
  Percent Not Converging      :     7.92
  
  
  ***************************
  Subcatchment Runoff Summary
  ***************************
  
  ------------------------------------------------------------------------------------------------------------------------------
                            Total      Total      Total      Total     Imperv       Perv      Total       Total     Peak  Runoff
                           Precip      Runon       Evap      Infil     Runoff     Runoff     Runoff      Runoff   Runoff   Coeff
  Subcatchment                 mm         mm         mm         mm         mm         mm         mm    10^6 ltr      CMS
  ------------------------------------------------------------------------------------------------------------------------------
  SC_5838467073             72.75       0.00       0.00       0.00      70.94       0.00      70.94        0.03     0.04   0.975
  SC_1200996354             72.75       0.00       0.00      34.47       0.00      39.99      39.99        0.02     0.03   0.550
  SC_5838467075             72.75       0.00       0.00       6.87      56.68       7.97      64.66        0.09     0.12   0.889
  SC_273532934              72.75       0.00       0.00      16.38      37.17      19.05      56.22        0.14     0.20   0.773
  SC_5838467080             72.75       0.00       0.00       0.00      70.98       0.00      70.98        0.04     0.05   0.976
  SC_1193500680             72.75       0.00       0.00      19.10      31.91      21.91      53.82        0.14     0.20   0.740
  SC_5838467082             72.75       0.00       0.00       6.52      57.50       7.57      65.08        0.16     0.20   0.895
  SC_5838467083             72.75       0.00       0.00       3.43      64.05       3.98      68.03        0.23     0.27   0.935
  SC_5838467084             72.75       0.00       0.00      19.70      30.60      22.67      53.27        0.26     0.38   0.732
  SC_1194805260             72.75       0.00       0.00      18.54      33.02      21.31      54.33        0.25     0.36   0.747
  SC_273569814              72.75       0.00       0.00      17.83      34.16      20.73      54.90        0.11     0.15   0.755
  SC_4041725982             72.75       0.00       0.00       2.04      66.73       2.39      69.12        0.09     0.11   0.950
  SC_1194805285             72.75       0.00       0.00      25.27      19.43      28.76      48.19        0.21     0.32   0.662
  SC_4041725990             72.75       0.00       0.00       1.19      68.42       1.43      69.84        0.04     0.04   0.960
  SC_4041725991             72.75       0.00       0.00       3.31      64.18       3.84      68.02        0.09     0.11   0.935
  SC_1142986795             72.75       0.00       0.00       7.50      55.47       8.73      64.19        0.16     0.21   0.882
  SC_1193500716             72.75       0.00       0.00      12.52      45.05      14.58      59.63        0.07     0.09   0.820
  SC_1198516271             72.75       0.00       0.00       8.38      53.93       9.74      63.66        0.27     0.34   0.875
  SC_4041564211             72.75       0.00       0.00      34.27       0.00      39.89      39.89        0.01     0.02   0.548
  SC_4041564217             72.75       0.00       0.00      34.24       0.00      39.85      39.85        0.01     0.01   0.548
  SC_4041564218             72.75       0.00       0.00      34.20       0.00      39.76      39.76        0.00     0.01   0.547
  SC_4041564220             72.75       0.00       0.00       0.00      70.84       0.00      70.84        0.02     0.02   0.974
  SC_1196705857             72.75       0.00       0.00       9.47      51.69      11.02      62.71        0.15     0.20   0.862
  SC_365473858              72.75       0.00       0.00       2.64      65.48       3.07      68.55        0.05     0.06   0.942
  SC_4041564228             72.75       0.00       0.00       0.34      70.12       0.42      70.54        0.02     0.02   0.970
  SC_1194805316             72.75       0.00       0.00      20.65      28.52      23.87      52.39        0.09     0.14   0.720
  SC_3998261323             72.75       0.00       0.00      25.74      18.71      29.01      47.72        0.28     0.40   0.656
  SC_5008500812             72.75       0.00       0.00      12.35      46.06      14.08      60.14        0.61     0.79   0.827
  SC_1194805327             72.75       0.00       0.00      15.23      39.57      17.70      57.28        0.06     0.08   0.787
  SC_5008500817             72.75       0.00       0.00      14.98      40.54      17.21      57.76        0.22     0.30   0.794
  SC_1195599959             72.75       0.00       0.00      15.23      39.90      17.49      57.39        0.27     0.36   0.789
  SC_3998261336             72.75       0.00       0.00      29.69      11.66      32.16      43.82        0.55     0.70   0.602
  SC_3998261338             72.75       0.00       0.00      25.37      20.05      27.83      47.88        0.67     0.87   0.658
  SC_388608098              72.75       0.00       0.00       0.66      69.94       0.78      70.72        0.24     0.28   0.972
  SC_3998261347             72.75       0.00       0.00      26.80      17.22      29.32      46.54        0.39     0.51   0.640
  SC_1201748068             72.75       0.00       0.00      32.98       4.06      37.12      41.18        0.11     0.17   0.566
  SC_1142986859             72.75       0.00       0.00       9.43      51.45      10.98      62.43        0.14     0.18   0.858
  SC_3998261356             72.75       0.00       0.00      32.23       6.47      35.07      41.54        0.37     0.48   0.571
  SC_1196611692             72.75       0.00       0.00      20.31      29.61      23.10      52.70        0.31     0.43   0.724
  SC_1196611695             72.75       0.00       0.00      11.26      48.07      13.07      61.15        0.26     0.34   0.841
  SC_1196611696             72.75       0.00       0.00      16.08      38.67      17.96      56.63        0.49     0.63   0.778
  SC_1196611697             72.75       0.00       0.00      12.53      45.48      14.43      59.90        0.47     0.62   0.823
  SC_1195599986             72.75       0.00       0.00      14.89      40.18      17.33      57.51        0.11     0.16   0.791
  SC_1196705918             72.75       0.00       0.00      13.77      42.92      15.83      58.75        0.35     0.46   0.808
  SC_5029265541             72.75       0.00       0.00       1.30      68.39       1.52      69.92        0.15     0.17   0.961
  SC_1201748103             72.75       0.00       0.00      19.56      30.45      22.77      53.22        0.02     0.03   0.732
  SC_5029265545             72.75       0.00       0.00       9.38      51.82      10.90      62.72        0.48     0.62   0.862
  SC_27662477               72.75       0.00       0.00       2.04      66.65       2.41      69.06        0.02     0.03   0.949
  SC_27662479               72.75       0.00       0.00       0.34      70.31       0.42      70.73        0.06     0.07   0.972
  SC_1196705936             72.75       0.00       0.00      16.71      36.38      19.45      55.83        0.03     0.05   0.767
  SC_27662481               72.75       0.00       0.00       1.39      68.57       1.61      70.18        0.33     0.39   0.965
  SC_269574293              72.75       0.00       0.00       0.48      69.92       0.59      70.51        0.07     0.08   0.969
  SC_269574294              72.75       0.00       0.00       9.23      52.01      10.74      62.75        0.16     0.21   0.863
  SC_27662485               72.75       0.00       0.00      11.86      46.46      13.81      60.27        0.09     0.12   0.828
  SC_27662487               72.75       0.00       0.00      10.52      49.51      12.20      61.71        0.39     0.51   0.848
  SC_27662495               72.75       0.00       0.00      10.32      49.73      12.01      61.74        0.27     0.35   0.849
  SC_27662499               72.75       0.00       0.00      10.57      49.04      12.30      61.34        0.10     0.14   0.843
  SC_1196705959             72.75       0.00       0.00      12.57      45.10      14.62      59.72        0.12     0.16   0.821
  SC_1196726440             72.75       0.00       0.00      35.71       2.80      34.86      37.66        1.88     1.63   0.518
  SC_27662506               72.75       0.00       0.00      16.52      37.71      18.50      56.21        0.25     0.32   0.773
  SC_27662509               72.75       0.00       0.00       5.64      59.39       6.56      65.95        0.06     0.08   0.907
  SC_27662515               72.75       0.00       0.00      19.00      32.12      21.80      53.91        0.18     0.25   0.741
  SC_1196705972             72.75       0.00       0.00       8.12      54.14       9.44      63.58        0.06     0.07   0.874
  SC_1193996470             72.75       0.00       0.00      16.97      36.20      19.56      55.77        0.26     0.36   0.767
  SC_388608187              72.75       0.00       0.00      14.11      41.90      16.41      58.30        0.20     0.28   0.801
  SC_27412668               72.75       0.00       0.00       2.26      66.14       2.68      68.82        0.04     0.05   0.946
  SC_27662526               72.75       0.00       0.00      26.74      16.66      30.16      46.82        0.18     0.26   0.644
  SC_27662537               72.75       0.00       0.00      27.47      14.44      31.81      46.25        0.05     0.08   0.636
  SC_27662538               72.75       0.00       0.00      27.95      13.81      32.00      45.80        0.07     0.12   0.630
  SC_27662540               72.75       0.00       0.00      20.37      28.86      23.70      52.56        0.04     0.06   0.723
  SC_27662542               72.75       0.00       0.00      26.59      16.14      30.88      47.02        0.05     0.08   0.646
  SC_1193996495             72.75       0.00       0.00      13.39      43.27      15.59      58.86        0.04     0.06   0.809
  SC_3998261458             72.75       0.00       0.00      26.91      15.94      30.81      46.75        0.08     0.12   0.643
  SC_27662548               72.75       0.00       0.00       4.30      62.28       5.00      67.27        0.15     0.18   0.925
  SC_27662550               72.75       0.00       0.00      23.21      23.34      26.75      50.09        0.13     0.19   0.688
  SC_1193996505             72.75       0.00       0.00      17.44      35.17      20.15      55.32        0.28     0.39   0.760
  SC_27412702               72.75       0.00       0.00       0.00      70.87       0.00      70.87        0.05     0.06   0.974
  SC_27662559               72.75       0.00       0.00       5.77      59.33       6.72      66.04        0.40     0.50   0.908
  SC_27662560               72.75       0.00       0.00      12.59      45.18      14.59      59.77        0.15     0.20   0.822
  SC_1195600102             72.75       0.00       0.00      12.16      45.98      14.14      60.12        0.14     0.19   0.826
  SC_27662571               72.75       0.00       0.00      13.12      44.02      15.23      59.25        0.24     0.32   0.814
  SC_269576427              72.75       0.00       0.00       0.87      69.54       1.02      70.56        0.30     0.36   0.970
  SC_7127800048             72.75       0.00       0.00       3.06      64.48       3.59      68.08        0.01     0.02   0.936
  SC_1195600116             72.75       0.00       0.00      14.49      41.09      16.85      57.94        0.11     0.15   0.796
  SC_269574389              72.75       0.00       0.00      11.88      46.57      13.81      60.38        0.28     0.37   0.830
  SC_271225076              72.75       0.00       0.00       7.05      56.58       8.21      64.79        0.11     0.14   0.891
  SC_3998261495             72.75       0.00       0.00      15.19      40.02      17.42      57.44        0.19     0.26   0.790
  SC_1200996600             72.75       0.00       0.00      20.51      29.31      23.28      52.59        0.20     0.28   0.723
  SC_1201748217             72.75       0.00       0.00      31.27       7.13      35.69      42.82        0.10     0.16   0.589
  SC_6062696697             72.75       0.00       0.00      34.26       0.00      39.88      39.88        0.01     0.01   0.548
  SC_1193996542             72.75       0.00       0.00      17.39      35.01      20.24      55.24        0.10     0.14   0.759
  SC_7127800063             72.75       0.00       0.00       6.28      57.92       7.28      65.20        0.05     0.06   0.896
  SC_273533187              72.75       0.00       0.00       8.18      53.86       9.49      63.34        0.02     0.03   0.871
  SC_1200996620             72.75       0.00       0.00      17.32      35.22      20.14      55.36        0.04     0.05   0.761
  SC_414253324              72.75       0.00       0.00      34.77       0.00      39.69      39.69        0.07     0.12   0.546
  SC_7127800079             72.75       0.00       0.00      12.16      45.62      14.12      59.74        0.05     0.07   0.821
  SC_1201748240             72.75       0.00       0.00      33.63       2.34      38.37      40.70        0.12     0.20   0.559
  SC_414253328              72.75       0.00       0.00      25.91      17.70      29.96      47.66        0.05     0.09   0.655
  SC_3035894047             72.75       0.00       0.00       4.07      62.59       4.71      67.30        0.18     0.22   0.925
  SC_1193500968             72.75       0.00       0.00      15.63      39.33      17.72      57.05        0.27     0.35   0.784
  SC_30619946               72.75       0.00       0.00      23.13      23.51      26.65      50.16        0.06     0.09   0.689
  SC_30619947               72.75       0.00       0.00      16.78      36.12      19.53      55.65        0.02     0.03   0.765
  SC_1196706092             72.75       0.00       0.00      10.89      48.39      12.68      61.06        0.06     0.09   0.839
  SC_1193996586             72.75       0.00       0.00      15.86      38.18      18.45      56.64        0.09     0.13   0.779
  SC_273920302              72.75       0.00       0.00      23.05      23.12      26.82      49.95        0.02     0.04   0.687
  SC_1193996608             72.75       0.00       0.00      17.20      35.99      19.59      55.58        0.15     0.20   0.764
  SC_1201748292             72.75       0.00       0.00      20.53      28.90      23.62      52.52        0.14     0.21   0.722
  SC_273930566              72.75       0.00       0.00       7.25      56.07       8.44      64.50        0.06     0.08   0.887
  SC_414255431              72.75       0.00       0.00      30.95       8.02      35.01      43.03        0.17     0.26   0.592
  SC_414255432              72.75       0.00       0.00      31.44       7.50      34.92      42.42        0.41     0.59   0.583
  SC_270049621              72.75       0.00       0.00      23.22      23.24      26.84      50.08        0.10     0.15   0.688
  SC_570311005              72.75       0.00       0.00      18.47      33.18      21.22      54.40        0.21     0.30   0.748
  SC_1196706148             72.75       0.00       0.00      10.91      48.50      12.70      61.19        0.10     0.13   0.841
  SC_1196706175             72.75       0.00       0.00       7.82      54.84       9.10      63.94        0.07     0.10   0.879
  SC_1195600256             72.75       0.00       0.00       6.22      58.10       7.22      65.31        0.06     0.08   0.898
  SC_277399939              72.75       0.00       0.00       0.19      70.88       0.23      71.11        0.12     0.14   0.977
  SC_1196706186             72.75       0.00       0.00      11.73      46.77      13.65      60.42        0.08     0.10   0.830
  SC_3514253709             72.75       0.00       0.00       7.18      56.54       8.34      64.88        0.50     0.63   0.892
  SC_1193996690             72.75       0.00       0.00      12.42      45.38      14.45      59.83        0.10     0.14   0.822
  SC_3795749269             72.75       0.00       0.00      29.57      10.52      33.84      44.36        0.05     0.08   0.610
  SC_1134010792             72.75       0.00       0.00       0.00      70.87       0.00      70.87        0.03     0.03   0.974
  SC_3079319986             72.75       0.00       0.00       9.91      50.34      11.52      61.86        0.04     0.05   0.850
  SC_3079319987             72.75       0.00       0.00      17.84      34.00      20.77      54.77        0.02     0.03   0.753
  SC_1193501118             72.75       0.00       0.00      12.53      45.07      14.59      59.66        0.16     0.21   0.820
  SC_1141967299             72.75       0.00       0.00      29.80      10.47      33.57      44.04        0.11     0.17   0.605
  SC_1141967301             72.75       0.00       0.00      21.76      26.22      25.17      51.39        0.11     0.16   0.706
  SC_1237334484             72.75       0.00       0.00      21.35      27.62      24.12      51.74        0.07     0.10   0.711
  SC_1195600341             72.75       0.00       0.00      22.65      24.45      26.14      50.59        0.09     0.13   0.695
  SC_587676124              72.75       0.00       0.00      30.69       9.59      33.33      42.92        0.47     0.61   0.590
  SC_2015203813             72.75       0.00       0.00      12.86      44.71      14.85      59.56        0.28     0.38   0.819
  SC_1190091238             72.75       0.00       0.00      12.98      44.42      15.01      59.44        0.22     0.29   0.817
  SC_4988502506             72.75       0.00       0.00      12.22      45.62      14.23      59.85        0.03     0.04   0.823
  SC_1192665582             72.75       0.00       0.00       3.45      64.12       4.01      68.13        0.23     0.28   0.937
  SC_1196655088             72.75       0.00       0.00       9.32      51.63      10.85      62.48        0.04     0.06   0.859
  SC_1193996784             72.75       0.00       0.00      22.54      25.21      25.43      50.63        0.14     0.20   0.696
  SC_1729038836             72.75       0.00       0.00       1.70      67.40       2.00      69.40        0.07     0.09   0.954
  SC_2856276468             72.75       0.00       0.00      28.22      13.25      32.31      45.57        0.11     0.18   0.626
  SC_3302113786             72.75       0.00       0.00      20.53      29.25      23.24      52.49        0.24     0.33   0.722
  SC_3302113787             72.75       0.00       0.00      28.74      12.34      32.72      45.06        0.19     0.29   0.619
  SC_4041724412             72.75       0.00       0.00      34.24       0.00      39.84      39.84        0.01     0.01   0.548
  SC_4041724413             72.75       0.00       0.00       0.00      70.80       0.00      70.80        0.01     0.01   0.973
  SC_1195600381             72.75       0.00       0.00       9.40      51.97      10.86      62.84        0.22     0.29   0.864
  SC_1143745023             72.75       0.00       0.00      10.16      50.12      11.82      61.94        0.16     0.21   0.851
  SC_1193501185             72.75       0.00       0.00       9.47      51.62      11.00      62.62        0.17     0.22   0.861
  SC_2019252746             72.75       0.00       0.00       0.17      70.64       0.21      70.85        0.05     0.06   0.974
  SC_415441421              72.75       0.00       0.00      28.46      12.51      32.87      45.38        0.06     0.09   0.624
  SC_1143745037             72.75       0.00       0.00       2.95      64.76       3.44      68.20        0.04     0.04   0.938
  SC_3953779215             72.75       0.00       0.00       4.55       0.00       0.00       0.00        0.00     0.00   0.000
  SC_2019252751             72.75       0.00       0.00       2.87      64.99       3.34      68.33        0.06     0.07   0.939
  SC_1190091281             72.75       0.00       0.00       4.47      61.72       5.19      66.90        0.10     0.13   0.920
  SC_2019252758             72.75       0.00       0.00       3.99      62.53       4.66      67.20        0.05     0.07   0.924
  SC_587797017              72.75       0.00       0.00      19.46      31.25      22.24      53.50        0.26     0.36   0.735
  SC_1195600413             72.75       0.00       0.00      14.65      40.79      17.03      57.81        0.09     0.13   0.795
  SC_759730721              72.75       0.00       0.00       6.47      57.40       7.50      64.90        0.02     0.02   0.892
  SC_587797025              72.75       0.00       0.00      30.10      11.02      32.36      43.38        0.65     0.81   0.596
  SC_1143745062             72.75       0.00       0.00       6.94      56.53       8.05      64.59        0.04     0.05   0.888
  SC_2019252775             72.75       0.00       0.00      34.24       0.00      39.85      39.85        0.01     0.01   0.548
  SC_1143745064             72.75       0.00       0.00      13.13      43.76      15.28      59.05        0.14     0.20   0.812
  SC_1141967405             72.75       0.00       0.00      12.81      44.66      14.87      59.54        0.13     0.17   0.818
  SC_759730734              72.75       0.00       0.00      13.32      43.21      15.48      58.68        0.02     0.03   0.807
  SC_30059059               72.75       0.00       0.00      16.92      35.76      19.67      55.43        0.01     0.02   0.762
  SC_1192665652             72.75       0.00       0.00       9.17      52.04      10.68      62.72        0.25     0.33   0.862
  SC_1134010935             72.75       0.00       0.00       3.74      63.08       4.36      67.44        0.04     0.05   0.927
  SC_1143745081             72.75       0.00       0.00       4.39      62.07       5.11      67.18        0.09     0.11   0.923
  SC_1192821307             72.75       0.00       0.00      14.17      41.80      16.46      58.26        0.15     0.21   0.801
  SC_587797051              72.75       0.00       0.00      27.23      16.76      29.27      46.04        0.58     0.71   0.633
  SC_1143745085             72.75       0.00       0.00       6.30      57.77       7.31      65.08        0.06     0.07   0.895
  SC_1190091330             72.75       0.00       0.00       8.46      53.40       9.83      63.23        0.05     0.07   0.869
  SC_1143745096             72.75       0.00       0.00      14.48      41.60      16.52      58.12        0.25     0.33   0.799
  SC_587797066              72.75       0.00       0.00      14.10      42.03      16.34      58.37        0.16     0.22   0.802
  SC_759730766              72.75       0.00       0.00       1.87      66.99       2.22      69.21        0.02     0.02   0.951
  SC_1196655184             72.75       0.00       0.00       8.57      53.30       9.97      63.27        0.06     0.07   0.870
  SC_4108505682             72.75       0.00       0.00       4.48      61.72       5.20      66.92        0.09     0.11   0.920
  SC_6702615126             72.75       0.00       0.00       7.19      56.16       8.36      64.52        0.09     0.12   0.887
  SC_1143745117             72.75       0.00       0.00       2.72      65.27       3.17      68.44        0.04     0.05   0.941
  SC_1195600479             72.75       0.00       0.00       2.61      65.64       3.03      68.67        0.11     0.13   0.944
  SC_1143745133             72.75       0.00       0.00       2.47      65.93       2.87      68.79        0.05     0.06   0.946
  SC_607971949              72.75       0.00       0.00      31.59       9.43      32.27      41.70        1.09     1.14   0.573
  SC_1143745135             72.75       0.00       0.00      25.51      18.41      29.59      48.00        0.04     0.06   0.660
  SC_6320497263             72.75       0.00       0.00      14.37      41.32      16.71      58.03        0.17     0.24   0.798
  SC_1128559217             72.75       0.00       0.00      34.16       0.00      39.68      39.68        0.00     0.01   0.545
  SC_6320497265             72.75       0.00       0.00      16.16      38.10      18.44      56.54        0.45     0.61   0.777
  SC_1143745139             72.75       0.00       0.00      13.01      43.95      15.14      59.09        0.09     0.12   0.812
  SC_1193501299             72.75       0.00       0.00      24.97      19.59      28.90      48.50        0.11     0.17   0.667
  SC_1190091385             72.75       0.00       0.00      13.30      43.40      15.49      58.89        0.10     0.13   0.809
  SC_1143745147             72.75       0.00       0.00       8.49      53.50       9.88      63.39        0.10     0.14   0.871
  SC_1143745148             72.75       0.00       0.00       0.00      70.95       0.00      70.95        0.04     0.05   0.975
  SC_4146600574             72.75       0.00       0.00      20.96      28.44      23.73      52.17        0.30     0.41   0.717
  SC_1196655236             72.75       0.00       0.00      16.11      37.83      18.68      56.51        0.14     0.19   0.777
  SC_1143745156             72.75       0.00       0.00      17.63       0.00       0.00       0.00        0.00     0.00   0.000
  SC_1143745160             72.75       0.00       0.00      13.20      43.44      15.33      58.77        0.03     0.04   0.808
  SC_1143745169             72.75       0.00       0.00       6.87      57.09       7.99      65.07        0.41     0.52   0.894
  SC_27789973               72.75       0.00       0.00       9.37      51.61      10.90      62.52        0.04     0.05   0.859
  SC_1143745175             72.75       0.00       0.00      19.80      30.47      22.72      53.19        0.25     0.35   0.731
  SC_1143745181             72.75       0.00       0.00       8.77      52.59      10.17      62.76        0.05     0.06   0.863
  SC_1192821407             72.75       0.00       0.00      16.09      39.20      17.40      56.60        0.08     0.10   0.778
  SC_1143745184             72.75       0.00       0.00      13.39      43.27      15.58      58.85        0.11     0.15   0.809
  SC_1192821413             72.75       0.00       0.00       6.83      56.77       7.92      64.69        0.05     0.07   0.889
  SC_1196726953             72.75       0.00       0.00       6.25      58.16       7.27      65.43        0.05     0.07   0.899
  SC_3517156019             72.75       0.00       0.00       4.00      62.91       4.65      67.56        0.26     0.32   0.929
  SC_3517156020             72.75       0.00       0.00      34.41       0.00      40.01      40.01        0.03     0.05   0.550
  SC_1141967542             72.75       0.00       0.00      11.25      47.89      13.07      60.96        0.07     0.10   0.838
  SC_3517156024             72.75       0.00       0.00      34.17       0.00      39.70      39.70        0.00     0.01   0.546
  SC_1143745208             72.75       0.00       0.00       0.00      71.30       0.00      71.30        0.18     0.21   0.980
  SC_1196726969             72.75       0.00       0.00      10.50      49.29      12.23      61.52        0.11     0.14   0.846
  SC_1196726970             72.75       0.00       0.00      29.77      10.79      33.16      43.96        0.31     0.44   0.604
  SC_30960316               72.75       0.00       0.00      26.79      15.58      31.18      46.76        0.02     0.03   0.643
  SC_30059192               72.75       0.00       0.00      15.18      40.40      17.09      57.48        0.40     0.52   0.790
  SC_1143745216             72.75       0.00       0.00       3.49      63.64       4.06      67.70        0.05     0.06   0.931
  SC_1141967558             72.75       0.00       0.00      24.34      20.80      28.25      49.05        0.07     0.11   0.674
  SC_1195600585             72.75       0.00       0.00      20.22      29.84      22.94      52.79        0.26     0.36   0.726
  SC_1195600590             72.75       0.00       0.00      15.60      38.84      18.12      56.96        0.07     0.10   0.783
  SC_1145309903             72.75       0.00       0.00       7.84      54.56       9.09      63.65        0.04     0.06   0.875
  SC_2045407952             72.75       0.00       0.00      34.20       0.00      39.76      39.76        0.00     0.01   0.546
  SC_1537487574             72.75       0.00       0.00      10.25      49.63      11.91      61.54        0.03     0.04   0.846
  SC_1196655319             72.75       0.00       0.00      12.07      46.26      13.99      60.26        0.17     0.23   0.828
  SC_1186642685             72.75       0.00       0.00      12.79      44.58      14.88      59.46        0.10     0.14   0.817
  SC_1143745277             72.75       0.00       0.00       0.00      70.95       0.00      70.95        0.06     0.08   0.975
  SC_273574655              72.75       0.00       0.00      14.94      40.34      17.27      57.62        0.21     0.29   0.792
  SC_4396714757             72.75       0.00       0.00      33.33       3.48      37.31      40.79        0.09     0.13   0.561
  SC_4396714760             72.75       0.00       0.00      13.89      42.02      16.14      58.16        0.03     0.05   0.799
  SC_3693990667             72.75       0.00       0.00      15.52      38.72      18.06      56.78        0.03     0.04   0.780
  SC_1143745292             72.75       0.00       0.00       7.80      55.06       9.07      64.14        0.14     0.18   0.882
  SC_1196124942             72.75       0.00       0.00      11.46      47.64      13.24      60.88        0.52     0.69   0.837
  SC_4396714769             72.75       0.00       0.00      14.03      41.80      16.32      58.12        0.01     0.01   0.799
  SC_1186642705             72.75       0.00       0.00      18.60      32.62      21.60      54.22        0.12     0.17   0.745
  SC_1189169940             72.75       0.00       0.00       0.60      70.09       0.71      70.81        0.38     0.44   0.973
  SC_280800022              72.75       0.00       0.00       7.88      54.96       9.17      64.13        0.51     0.65   0.881
  SC_1143745306             72.75       0.00       0.00       6.46      57.37       7.52      64.89        0.02     0.02   0.892
  SC_1196124957             72.75       0.00       0.00      20.02      30.36      22.60      52.96        0.61     0.83   0.728
  SC_271225632              72.75       0.00       0.00      12.95      44.20      15.08      59.27        0.08     0.11   0.815
  SC_1145309990             72.75       0.00       0.00      12.00      46.12      13.97      60.09        0.05     0.07   0.826
  SC_1144701738             72.75       0.00       0.00       2.00      67.16       2.32      69.48        0.31     0.37   0.955
  SC_337810218              72.75       0.00       0.00      16.32      37.41      18.91      56.32        0.33     0.46   0.774
  SC_1143745324             72.75       0.00       0.00       6.66      57.15       7.73      64.88        0.17     0.22   0.892
  SC_1145310009             72.75       0.00       0.00      16.09      38.18      18.42      56.60        0.32     0.43   0.778
  SC_1143745338             72.75       0.00       0.00       2.13      66.95       2.47      69.42        0.30     0.36   0.954
  SC_1186642772             72.75       0.00       0.00      18.33      33.36      21.15      54.51        0.04     0.06   0.749
  SC_31865693               72.75       0.00       0.00      10.71      48.99      12.45      61.44        0.20     0.26   0.845
  SC_337806177              72.75       0.00       0.00      11.07      48.20      12.88      61.07        0.25     0.33   0.840
  SC_1143745383             72.75       0.00       0.00       3.07      64.87       3.56      68.43        0.24     0.29   0.941
  SC_1143745384             72.75       0.00       0.00       7.16      56.02       8.30      64.32        0.08     0.11   0.884
  SC_31865708               72.75       0.00       0.00       2.85      65.31       3.31      68.62        0.13     0.16   0.943
  SC_1143745391             72.75       0.00       0.00       5.12      60.72       5.97      66.68        0.20     0.24   0.917
  SC_273574773              72.75       0.00       0.00       3.17      64.90       3.68      68.58        0.72     0.86   0.943
  SC_31865721               72.75       0.00       0.00      34.36       0.00      39.99      39.99        0.01     0.03   0.550
  SC_31865723               72.75       0.00       0.00      25.43      18.73      29.36      48.09        0.07     0.11   0.661
  SC_4850469760             72.75       0.00       0.00       2.67      65.83       3.10      68.93        0.19     0.23   0.947
  SC_4850469761             72.75       0.00       0.00       1.36      68.38       1.60      69.98        0.06     0.07   0.962
  SC_1143745410             72.75       0.00       0.00      13.46      43.53      15.50      59.03        0.37     0.50   0.811
  SC_4850469765             72.75       0.00       0.00       8.54      53.19       9.91      63.11        0.04     0.05   0.867
  SC_31865734               72.75       0.00       0.00      14.97      39.84      17.41      57.25        0.05     0.07   0.787
  SC_31865739               72.75       0.00       0.00      30.99       9.01      33.63      42.64        0.57     0.74   0.586
  SC_31865740               72.75       0.00       0.00      27.73      13.80      32.21      46.02        0.10     0.17   0.633
  SC_1194029968             72.75       0.00       0.00      16.43      37.14      19.06      56.21        0.13     0.18   0.773
  SC_7122965393             72.75       0.00       0.00       4.07      62.31       4.82      67.13        0.01     0.01   0.923
  SC_1186642833             72.75       0.00       0.00      14.39      41.10      16.75      57.86        0.07     0.10   0.795
  SC_3997477783             72.75       0.00       0.00      35.71       0.03      38.19      38.22        0.78     0.96   0.525
  SC_412322715              72.75       0.00       0.00       0.00      70.91       0.00      70.91        0.04     0.04   0.975
  SC_6783579036             72.75       0.00       0.00      18.35      32.80      21.34      54.14        0.03     0.05   0.744
  SC_6783579038             72.75       0.00       0.00      13.41      43.29      15.60      58.89        0.16     0.22   0.809
  SC_3997477792             72.75       0.00       0.00      35.51       0.77      37.53      38.30        0.71     0.83   0.526
  SC_1186642852             72.75       0.00       0.00      15.98      38.07      18.55      56.61        0.08     0.11   0.778
  SC_1194029992             72.75       0.00       0.00      19.37      31.15      22.40      53.55        0.12     0.17   0.736
  SC_6783579050             72.75       0.00       0.00       5.21      60.14       6.04      66.19        0.07     0.09   0.910
  SC_6783579051             72.75       0.00       0.00       3.74      63.54       4.35      67.89        0.21     0.26   0.933
  SC_1829120940             72.75       0.00       0.00       7.84      54.58       9.10      63.68        0.06     0.07   0.875
  SC_6783579052             72.75       0.00       0.00       2.12      67.07       2.46      69.53        0.55     0.65   0.956
  SC_1829120944             72.75       0.00       0.00       7.86      54.63       9.12      63.75        0.06     0.08   0.876
  SC_6783579057             72.75       0.00       0.00      16.75      36.70      19.27      55.98        0.27     0.37   0.769
  SC_3997477811             72.75       0.00       0.00      32.09       5.99      35.92      41.90        0.16     0.23   0.576
  SC_6783579060             72.75       0.00       0.00       7.11      56.39       8.27      64.66        0.24     0.30   0.889
  SC_1192526773             72.75       0.00       0.00       9.81      50.82      11.42      62.23        0.25     0.33   0.855
  SC_3997477815             72.75       0.00       0.00      12.29      45.33      14.27      59.60        0.02     0.03   0.819
  SC_6783579069             72.75       0.00       0.00       3.00      65.34       3.49      68.83        0.76     0.91   0.946
  SC_269575101              72.75       0.00       0.00      27.65      14.57      31.48      46.05        0.12     0.19   0.633
  SC_6783579072             72.75       0.00       0.00       4.22      62.52       4.90      67.41        0.13     0.16   0.927
  SC_1194030017             72.75       0.00       0.00      10.67      49.07      12.40      61.47        0.19     0.25   0.845
  SC_1141967808             72.75       0.00       0.00      16.91      36.05      19.66      55.71        0.14     0.20   0.766
  SC_1194775492             72.75       0.00       0.00      18.68      32.44      21.70      54.14        0.12     0.18   0.744
  SC_269575112              72.75       0.00       0.00      21.38      27.82      23.84      51.66        0.59     0.79   0.710
  SC_1196655562             72.75       0.00       0.00      13.08      44.03      15.20      59.23        0.07     0.09   0.814
  SC_1194775498             72.75       0.00       0.00      13.70      42.53      15.95      58.48        0.03     0.04   0.804
  SC_1194775500             72.75       0.00       0.00      11.28      47.49      13.11      60.60        0.06     0.08   0.833
  SC_1194775499             72.75       0.00       0.00      10.40      49.46      12.11      61.56        0.11     0.15   0.846
  SC_1194775502             72.75       0.00       0.00      11.64      46.80      13.55      60.35        0.10     0.14   0.830
  SC_3997477839             72.75       0.00       0.00      13.16      43.84      15.30      59.14        0.08     0.11   0.813
  SC_1194775505             72.75       0.00       0.00       6.70      57.41       7.80      65.21        0.06     0.08   0.896
  SC_1194775508             72.75       0.00       0.00      16.26      37.18      18.91      56.09        0.03     0.04   0.771
  SC_1194775509             72.75       0.00       0.00      22.13      25.46      25.59      51.05        0.12     0.18   0.702
  SC_3997477846             72.75       0.00       0.00      18.86      32.04      21.93      53.97        0.05     0.07   0.742
  SC_1189170133             72.75       0.00       0.00      10.70      48.77      12.45      61.23        0.05     0.07   0.842
  SC_1189170137             72.75       0.00       0.00      24.28      21.26      27.85      49.11        0.23     0.34   0.675
  SC_1864106970             72.75       0.00       0.00      30.31       9.13      34.53      43.66        0.06     0.10   0.600
  SC_7124741087             72.75       0.00       0.00       3.74      63.04       4.39      67.43        0.02     0.03   0.927
  SC_1585587171             72.75       0.00       0.00      18.75      32.16      21.83      53.98        0.03     0.04   0.742
  SC_1145310183             72.75       0.00       0.00      12.47      45.10      14.52      59.62        0.10     0.14   0.820
  SC_1186642920             72.75       0.00       0.00      16.57      36.60      19.30      55.90        0.06     0.08   0.768
  SC_1195599498             72.75       0.00       0.00      26.73       0.00       0.00       0.00        0.00     0.00   0.000
  SC_1585587183             72.75       0.00       0.00      31.46       8.07      34.14      42.21        0.47     0.61   0.580
  SC_1186642947             72.75       0.00       0.00      12.06      46.12      14.03      60.15        0.17     0.23   0.827
  SC_1193714703             72.75       0.00       0.00       8.58      53.45       9.98      63.43        0.25     0.32   0.872
  SC_1193714706             72.75       0.00       0.00       0.85      69.15       1.03      70.18        0.05     0.06   0.965
  SC_1905626142             72.75       0.00       0.00      17.92      34.04      20.80      54.84        0.02     0.03   0.754
  SC_3224615967             72.75       0.00       0.00       8.36      53.69       9.73      63.42        0.15     0.20   0.872
  SC_1144701985             72.75       0.00       0.00      11.21      48.37      12.83      61.20        0.08     0.10   0.841
  SC_1905626157             72.75       0.00       0.00      15.52      38.85      18.07      56.92        0.05     0.07   0.782
  SC_1196151861             72.75       0.00       0.00       5.97      58.68       6.93      65.61        0.11     0.14   0.902
  SC_273574967              72.75       0.00       0.00       7.16      56.22       8.33      64.55        0.13     0.17   0.887
  SC_1196196934             72.75       0.00       0.00       9.05      52.24      10.53      62.77        0.08     0.11   0.863
  SC_1186643015             72.75       0.00       0.00      16.47      37.27      18.96      56.23        0.22     0.31   0.773
  SC_1192526930             72.75       0.00       0.00      21.95      26.53      24.63      51.16        0.22     0.31   0.703
  SC_280773715              72.75       0.00       0.00       0.11      70.67       0.14      70.81        0.03     0.03   0.973
  SC_1186643031             72.75       0.00       0.00      14.28      41.59      16.58      58.17        0.21     0.29   0.800
  SC_273570904              72.75       0.00       0.00       6.31      57.86       7.33      65.19        0.08     0.10   0.896
  SC_1196196962             72.75       0.00       0.00      15.58      38.76      18.13      56.90        0.05     0.07   0.782
  SC_271223909              72.75       0.00       0.00       1.67      68.05       1.93      69.99        0.13     0.15   0.962
  SC_1192526952             72.75       0.00       0.00       9.03      52.36      10.52      62.88        0.15     0.19   0.864
  SC_271223919              72.75       0.00       0.00       1.57      67.83       1.84      69.67        0.11     0.13   0.958
  SC_1196196975             72.75       0.00       0.00      20.87      28.40      23.80      52.20        0.23     0.33   0.717
  SC_1196151921             72.75       0.00       0.00      11.85      46.64      13.77      60.42        0.21     0.27   0.830
  SC_4575919229             72.75       0.00       0.00      18.99      31.99      21.92      53.91        0.13     0.18   0.741
  SC_4575919232             72.75       0.00       0.00      17.59      35.04      20.17      55.21        0.19     0.26   0.759
  SC_1144702084             72.75       0.00       0.00      16.50      37.21      19.00      56.20        0.25     0.35   0.773
  SC_1196197004             72.75       0.00       0.00      15.54      38.97      18.04      57.01        0.18     0.26   0.784
  SC_388609180              72.75       0.00       0.00      16.30      37.56      18.81      56.37        0.29     0.40   0.775
  SC_1196151977             72.75       0.00       0.00      15.69      38.91      18.05      56.96        0.18     0.25   0.783
  SC_478698686              72.75       0.00       0.00      22.38      25.10      25.74      50.84        0.05     0.07   0.699
  SC_1186643136             72.75       0.00       0.00      12.81      44.89      14.75      59.64        0.27     0.35   0.820
  SC_3183269063             72.75       0.00       0.00       4.54      61.90       5.28      67.18        0.09     0.11   0.923
  SC_1186643152             72.75       0.00       0.00      16.22      37.56      18.83      56.39        0.16     0.23   0.775
  SC_1196197072             72.75       0.00       0.00      15.02      39.96      17.47      57.43        0.09     0.13   0.789
  SC_1185352917             72.75       0.00       0.00      12.32      45.36      14.33      59.69        0.09     0.12   0.821
  SC_1186643159             72.75       0.00       0.00      12.20      45.67      14.20      59.86        0.06     0.08   0.823
  SC_1196152030             72.75       0.00       0.00      15.24      39.48      17.73      57.21        0.05     0.07   0.786
  SC_1277496547             72.75       0.00       0.00      35.06       0.00      39.22      39.22        0.22     0.34   0.539
  SC_6565108967             72.75       0.00       0.00      11.76      46.37      13.63      60.01        0.02     0.02   0.825
  SC_1133153524             72.75       0.00       0.00       7.62      55.08       8.84      63.93        0.04     0.05   0.879
  SC_1196197108             72.75       0.00       0.00      21.94      25.87      25.36      51.23        0.13     0.19   0.704
  SC_1196197113             72.75       0.00       0.00      21.98      26.17      25.00      51.17        0.17     0.24   0.703
  SC_357932285              72.75       0.00       0.00      29.67      10.68      33.50      44.17        0.10     0.15   0.607
  SC_357932288              72.75       0.00       0.00      34.48       0.00      41.08      41.08        0.04     0.07   0.565
  SC_280773888              72.75       0.00       0.00       0.00      71.21       0.00      71.21        0.08     0.10   0.979
  SC_1196152064             72.75       0.00       0.00      11.95      46.44      13.89      60.32        0.21     0.29   0.829
  SC_1142328584             72.75       0.00       0.00      16.57      36.85      19.23      56.08        0.14     0.20   0.771
  SC_1145310473             72.75       0.00       0.00      12.47      45.18      14.52      59.70        0.08     0.10   0.821
  SC_1196197132             72.75       0.00       0.00      16.17      37.59      18.81      56.39        0.05     0.07   0.775
  SC_1133153554             72.75       0.00       0.00       1.70      67.28       2.05      69.33        0.02     0.03   0.953
  SC_3793823009             72.75       0.00       0.00      30.69       9.00      34.10      43.10        0.24     0.34   0.592
  SC_3793823010             72.75       0.00       0.00      34.28       0.00      39.90      39.90        0.01     0.02   0.549
  SC_1196197155             72.75       0.00       0.00      26.74      16.15      30.76      46.91        0.13     0.21   0.645
  SC_1186643238             72.75       0.00       0.00      18.70      32.44      21.70      54.14        0.09     0.13   0.744
  SC_1196152118             72.75       0.00       0.00      14.20      41.70      16.51      58.21        0.08     0.11   0.800
  SC_1133153593             72.75       0.00       0.00       0.00      71.07       0.00      71.07        0.08     0.09   0.977
  SC_273575232              72.75       0.00       0.00      11.93      46.32      13.89      60.21        0.10     0.13   0.828
  SC_273575233              72.75       0.00       0.00      15.50      39.02      18.01      57.03        0.15     0.21   0.784
  SC_1140956493             72.75       0.00       0.00       0.62      69.67       0.76      70.43        0.08     0.10   0.968
  SC_1196197198             72.75       0.00       0.00      17.83      34.42      20.55      54.97        0.19     0.26   0.756
  SC_1196197200             72.75       0.00       0.00      18.04      33.81      20.93      54.74        0.06     0.09   0.752
  SC_1133153624             72.75       0.00       0.00       0.00      71.09       0.00      71.09        0.06     0.07   0.977
  SC_2015126877             72.75       0.00       0.00      34.12       0.00      39.59      39.59        0.00     0.00   0.544
  SC_1196197214             72.75       0.00       0.00      19.46      30.83      22.60      53.44        0.11     0.16   0.735
  SC_1196152157             72.75       0.00       0.00      21.70      26.50      24.96      51.45        0.11     0.16   0.707
  SC_2015126883             72.75       0.00       0.00       2.21      66.25       2.62      68.87        0.03     0.04   0.947
  SC_1145310574             72.75       0.00       0.00       8.90      52.54      10.35      62.89        0.04     0.06   0.864
  SC_1133153647             72.75       0.00       0.00      34.10       0.00      39.53      39.53        0.00     0.00   0.543
  SC_1133153650             72.75       0.00       0.00       0.00      71.06       0.00      71.06        0.05     0.06   0.977
  SC_280774003              72.75       0.00       0.00       0.25      70.51       0.31      70.82        0.08     0.09   0.973
  SC_280774004              72.75       0.00       0.00      34.23       0.00      39.82      39.82        0.01     0.01   0.547
  SC_1186643317             72.75       0.00       0.00      11.09      48.03      12.91      60.94        0.10     0.14   0.838
  SC_1196197234             72.75       0.00       0.00      13.85      42.57      16.04      58.61        0.26     0.35   0.806
  SC_5838431618             72.75       0.00       0.00      14.81      40.47      17.20      57.68        0.04     0.05   0.793
  SC_5838431619             72.75       0.00       0.00      28.67      12.12      33.06      45.19        0.06     0.11   0.621
  SC_5838431620             72.75       0.00       0.00      18.21      33.30      21.19      54.49        0.03     0.05   0.749
  SC_5838431621             72.75       0.00       0.00      31.61       7.17      35.08      42.26        0.19     0.27   0.581
  SC_5838431622             72.75       0.00       0.00      28.63      12.03      33.18      45.22        0.03     0.04   0.622
  SC_5838431623             72.75       0.00       0.00      30.43       8.50      35.13      43.62        0.10     0.18   0.600
  SC_3517236616             72.75       0.00       0.00       2.13      66.83       2.47      69.30        0.30     0.36   0.953
  SC_1145310600             72.75       0.00       0.00      11.85      46.62      13.77      60.39        0.22     0.29   0.830
  SC_5838431629             72.75       0.00       0.00      19.80      30.11      23.01      53.12        0.04     0.06   0.730
  SC_5838431630             72.75       0.00       0.00      14.98      39.93      17.44      57.37        0.07     0.10   0.789
  SC_5838431631             72.75       0.00       0.00       8.99      52.65      10.45      63.10        0.20     0.26   0.867
  SC_1864791440             72.75       0.00       0.00      28.95      12.56      32.11      44.66        0.33     0.46   0.614
  SC_5838431635             72.75       0.00       0.00      13.83      42.57      16.04      58.61        0.29     0.39   0.806
  SC_3517236632             72.75       0.00       0.00       5.12      60.41       5.94      66.35        0.06     0.07   0.912
  SC_1185353114             72.75       0.00       0.00       6.84      57.27       7.95      65.22        0.30     0.38   0.897
  SC_5838431647             72.75       0.00       0.00      19.59      30.82      22.55      53.37        0.15     0.21   0.734
  SC_5838431648             72.75       0.00       0.00      10.09      49.99      11.72      61.72        0.09     0.12   0.848
  SC_5838431649             72.75       0.00       0.00      23.04      23.89      26.34      50.23        0.14     0.21   0.690
  SC_5838431651             72.75       0.00       0.00      14.67      40.58      17.08      57.66        0.07     0.10   0.793
  SC_5838431652             72.75       0.00       0.00      20.56      28.55      23.89      52.44        0.06     0.09   0.721
  SC_1194810793             72.75       0.00       0.00      23.82      22.03      27.51      49.54        0.09     0.13   0.681
  SC_414924202              72.75       0.00       0.00      23.35      22.84      27.10      49.94        0.03     0.04   0.686
  SC_5009864107             72.75       0.00       0.00      16.70      36.52      19.41      55.93        0.06     0.08   0.769
  SC_5838431659             72.75       0.00       0.00      34.23       0.00      39.84      39.84        0.01     0.01   0.548
  SC_5838431660             72.75       0.00       0.00      11.23      47.69      13.07      60.77        0.09     0.13   0.835
  SC_5838431662             72.75       0.00       0.00      13.84      42.37      16.10      58.48        0.11     0.15   0.804
  SC_1186643375             72.75       0.00       0.00       4.92      60.99       5.73      66.72        0.27     0.34   0.917
  SC_5838431663             72.75       0.00       0.00      18.23      33.59      21.02      54.61        0.27     0.39   0.751
  SC_1185353137             72.75       0.00       0.00      19.44      31.06      22.44      53.50        0.13     0.18   0.735
  SC_5838431664             72.75       0.00       0.00      17.18      36.64      18.94      55.58        0.24     0.30   0.764
  SC_5838431665             72.75       0.00       0.00      10.55      49.34      12.27      61.61        0.22     0.29   0.847
  SC_1186643380             72.75       0.00       0.00      20.23      29.32      23.44      52.76        0.11     0.17   0.725
  SC_414924212              72.75       0.00       0.00      23.67      21.95      27.56      49.51        0.01     0.02   0.681
  SC_414924214              72.75       0.00       0.00      29.30      10.62      33.99      44.61        0.03     0.05   0.613
  SC_269372857              72.75       0.00       0.00      23.04      23.66      26.58      50.24        0.12     0.19   0.691
  SC_3091625402             72.75       0.00       0.00      21.91      26.16      25.11      51.26        0.15     0.22   0.705
  SC_5838431674             72.75       0.00       0.00      14.22      42.00      16.41      58.41        0.30     0.41   0.803
  SC_5838431677             72.75       0.00       0.00       9.79      50.94      11.38      62.32        0.10     0.13   0.857
  SC_1185353150             72.75       0.00       0.00       4.77      60.99       5.53      66.52        0.08     0.10   0.914
  SC_5838431679             72.75       0.00       0.00      26.29      17.11      30.20      47.31        0.12     0.18   0.650
  SC_5838431680             72.75       0.00       0.00      21.87      25.96      25.32      51.29        0.11     0.16   0.705
  SC_5838431678             72.75       0.00       0.00      19.28      31.51      22.15      53.66        0.20     0.28   0.738
  SC_5838431682             72.75       0.00       0.00      20.86      27.91      24.25      52.16        0.05     0.07   0.717
  SC_5838431683             72.75       0.00       0.00      13.40      43.29      15.60      58.88        0.06     0.08   0.809
  SC_3091625412             72.75       0.00       0.00       7.37      55.86       8.58      64.45        0.18     0.23   0.886
  SC_5838431685             72.75       0.00       0.00      20.33      29.35      23.34      52.70        0.22     0.31   0.724
  SC_5838431686             72.75       0.00       0.00       5.99      58.81       6.97      65.78        0.22     0.28   0.904
  SC_327544263              72.75       0.00       0.00      34.17       0.00      39.69      39.69        0.00     0.01   0.546
  SC_3091625415             72.75       0.00       0.00       1.12      69.18       1.30      70.48        0.30     0.35   0.969
  SC_5838431688             72.75       0.00       0.00      14.99      40.06      17.42      57.48        0.11     0.15   0.790
  SC_5838431689             72.75       0.00       0.00      14.53      41.22      16.78      58.00        0.28     0.38   0.797
  SC_5838431691             72.75       0.00       0.00       8.51      53.11       9.88      62.99        0.02     0.02   0.866
  SC_1194810827             72.75       0.00       0.00      20.70      28.35      23.99      52.34        0.06     0.09   0.719
  SC_5838431693             72.75       0.00       0.00      20.86      27.89      24.26      52.15        0.08     0.13   0.717
  SC_5838431694             72.75       0.00       0.00      19.16      31.76      22.00      53.77        0.14     0.20   0.739
  SC_5838431695             72.75       0.00       0.00      12.56      45.14      14.59      59.73        0.21     0.28   0.821
  SC_5838431692             72.75       0.00       0.00      23.56      22.49      27.27      49.76        0.15     0.22   0.684
  SC_1133153745             72.75       0.00       0.00       4.56      61.46       5.29      66.76        0.06     0.08   0.918
  SC_1185353173             72.75       0.00       0.00       9.60      51.46      11.13      62.59        0.31     0.40   0.860
  SC_391661018              72.75       0.00       0.00      30.54       8.31      35.22      43.52        0.12     0.21   0.598
  SC_327544287              72.75       0.00       0.00      34.16       0.00      39.66      39.66        0.00     0.01   0.545
  SC_30002657               72.75       0.00       0.00      35.26       0.00      38.92      38.92        0.34     0.50   0.535
  SC_327544291              72.75       0.00       0.00       0.34      70.15       0.42      70.57        0.02     0.03   0.970
  SC_2103424485             72.75       0.00       0.00       5.85      59.25       6.81      66.06        0.42     0.52   0.908
  SC_2103424486             72.75       0.00       0.00       0.38      70.74       0.45      71.19        0.48     0.56   0.979
  SC_30002662               72.75       0.00       0.00      23.33      24.11      25.68      49.79        0.60     0.78   0.684
  SC_30002665               72.75       0.00       0.00      29.89       9.98      34.07      44.05        0.09     0.14   0.605
  SC_30002666               72.75       0.00       0.00      25.52      19.65      28.12      47.77        0.46     0.61   0.657
  SC_2103424493             72.75       0.00       0.00       0.08      71.05       0.10      71.15        0.18     0.21   0.978
  SC_5983765999             72.75       0.00       0.00      15.38      38.95      17.88      56.83        0.01     0.01   0.781
  SC_2103424496             72.75       0.00       0.00       5.94      58.64       6.89      65.52        0.07     0.09   0.901
  SC_2103424497             72.75       0.00       0.00       5.78      59.12       6.72      65.84        0.10     0.13   0.905
  SC_5983766001             72.75       0.00       0.00      11.26      47.45      13.06      60.51        0.02     0.03   0.832
  SC_1116763631             72.75       0.00       0.00      25.18      19.12      29.19      48.30        0.07     0.12   0.664
  SC_2103424500             72.75       0.00       0.00       1.21      68.55       1.42      69.98        0.10     0.12   0.962
  SC_5983766013             72.75       0.00       0.00      24.36      20.53      28.36      48.89        0.01     0.02   0.672
  SC_2103424510             72.75       0.00       0.00       0.00      71.05       0.00      71.05        0.06     0.07   0.977
  SC_2103424511             72.75       0.00       0.00       0.23      70.38       0.28      70.66        0.02     0.02   0.971
  SC_1116763649             72.75       0.00       0.00      20.91      27.85      24.28      52.13        0.10     0.15   0.717
  SC_2103424516             72.75       0.00       0.00       0.68      69.65       0.81      70.46        0.06     0.07   0.969
  SC_2103424517             72.75       0.00       0.00       0.00      70.90       0.00      70.90        0.02     0.02   0.975
  SC_30002694               72.75       0.00       0.00      17.15      36.35      19.28      55.63        0.59     0.78   0.765
  SC_2103424519             72.75       0.00       0.00       1.51      68.06       1.76      69.82        0.13     0.15   0.960
  SC_30002696               72.75       0.00       0.00      24.06      23.12      25.99      49.11        0.90     1.11   0.675
  SC_30002697               72.75       0.00       0.00      23.51      23.45      26.24      49.69        0.44     0.60   0.683
  SC_30002701               72.75       0.00       0.00      13.60      43.45      15.50      58.95        0.93     1.22   0.810
  SC_30002703               72.75       0.00       0.00      12.01      46.53      13.85      60.38        0.51     0.67   0.830
  SC_30002704               72.75       0.00       0.00      15.09      40.19      17.33      57.52        0.34     0.47   0.791
  SC_30002705               72.75       0.00       0.00      16.24      37.32      18.91      56.23        0.03     0.05   0.773
  SC_1140956690             72.75       0.00       0.00       3.10      64.66       3.60      68.26        0.12     0.15   0.938
  SC_30002706               72.75       0.00       0.00      21.04      28.47      23.50      51.97        0.38     0.51   0.714
  SC_30002708               72.75       0.00       0.00       7.19      56.17       8.37      64.54        0.07     0.09   0.887
  SC_30002707               72.75       0.00       0.00       9.50      51.44      11.06      62.50        0.08     0.11   0.859
  SC_1116763670             72.75       0.00       0.00      21.41      26.67      24.92      51.59        0.04     0.06   0.709
  SC_1196125719             72.75       0.00       0.00      19.56      31.11      22.29      53.39        0.41     0.57   0.734
  SC_30002710               72.75       0.00       0.00      27.78      14.74      31.05      45.79        0.38     0.54   0.629
  SC_1196125721             72.75       0.00       0.00      12.77      44.50      14.86      59.36        0.04     0.06   0.816
  SC_30002713               72.75       0.00       0.00      15.89      38.40      18.35      56.75        0.29     0.40   0.780
  SC_2959189531             72.75       0.00       0.00       6.22      57.97       7.21      65.18        0.07     0.08   0.896
  SC_1186643485             72.75       0.00       0.00      11.10      48.10      12.92      61.01        0.10     0.14   0.839
  SC_30002719               72.75       0.00       0.00      10.07      50.15      11.72      61.87        0.09     0.12   0.850
  SC_30002723               72.75       0.00       0.00       0.58      70.18       0.68      70.86        0.29     0.34   0.974
  SC_30002725               72.75       0.00       0.00       9.47      51.33      11.01      62.35        0.15     0.20   0.857
  SC_1116763687             72.75       0.00       0.00      10.13      49.85      11.76      61.61        0.04     0.06   0.847
  SC_4337688104             72.75       0.00       0.00      27.63      13.88      32.15      46.03        0.04     0.08   0.633
  SC_30002730               72.75       0.00       0.00       0.79      69.79       0.93      70.72        0.36     0.42   0.972
  SC_30002731               72.75       0.00       0.00       0.31      70.66       0.37      71.03        0.26     0.31   0.976
  SC_4337688106             72.75       0.00       0.00      23.11      23.13      26.90      50.03        0.03     0.04   0.688
  SC_30002734               72.75       0.00       0.00       8.58      53.11       9.96      63.07        0.10     0.13   0.867
  SC_30002737               72.75       0.00       0.00       7.63      55.56       8.87      64.43        0.47     0.60   0.886
  SC_30002738               72.75       0.00       0.00       8.86      52.88      10.30      63.18        0.27     0.35   0.868
  SC_5983766066             72.75       0.00       0.00      16.99      36.37      19.40      55.77        0.35     0.47   0.767
  SC_30002740               72.75       0.00       0.00       9.19      51.97      10.70      62.67        0.15     0.19   0.861
  SC_30002741               72.75       0.00       0.00      21.76      26.05      25.30      51.34        0.08     0.12   0.706
  SC_275803700              72.75       0.00       0.00      31.10       7.60      35.33      42.94        0.25     0.39   0.590
  SC_5983766068             72.75       0.00       0.00      24.94      19.73      28.80      48.53        0.11     0.18   0.667
  SC_5983766069             72.75       0.00       0.00      22.68      24.07      26.40      50.47        0.02     0.04   0.694
  SC_1116763705             72.75       0.00       0.00      16.94      35.76      19.72      55.48        0.02     0.02   0.763
  SC_5983766074             72.75       0.00       0.00      24.12      21.74      27.50      49.24        0.15     0.22   0.677
  SC_30002747               72.75       0.00       0.00      18.12      33.59      21.05      54.65        0.08     0.12   0.751
  SC_30002746               72.75       0.00       0.00      19.06      32.57      21.24      53.81        0.29     0.38   0.740
  SC_30002749               72.75       0.00       0.00       6.77      57.00       7.87      64.87        0.13     0.16   0.892
  SC_5983766077             72.75       0.00       0.00      12.95      43.90      15.01      58.91        0.01     0.01   0.810
  SC_5983766078             72.75       0.00       0.00      15.09      39.93      17.51      57.44        0.17     0.24   0.790
  SC_5983766079             72.75       0.00       0.00      12.19      46.25      14.00      60.25        0.23     0.30   0.828
  SC_1116763722             72.75       0.00       0.00       6.81      56.69       7.90      64.58        0.02     0.03   0.888
  SC_1114082891             72.75       0.00       0.00       7.98      54.44       9.28      63.72        0.05     0.06   0.876
  SC_5983766094             72.75       0.00       0.00      12.34      45.40      14.37      59.77        0.04     0.06   0.822
  SC_5983766097             72.75       0.00       0.00      35.74       0.70      37.30      38.01        0.79     0.87   0.522
  SC_27788887               72.75       0.00       0.00       4.43      61.72       5.13      66.85        0.04     0.05   0.919
  SC_1116763737             72.75       0.00       0.00      11.27      47.47      13.09      60.56        0.02     0.02   0.832
  SC_2015055454             72.75       0.00       0.00       0.61      70.33       0.71      71.04        0.15     0.17   0.977
  SC_1142328928             72.75       0.00       0.00      10.33      49.73      12.02      61.75        0.19     0.25   0.849
  SC_1114082914             72.75       0.00       0.00      26.51      16.57      30.55      47.12        0.19     0.29   0.648
  SC_764679783              72.75       0.00       0.00       2.97      64.85       3.45      68.29        0.11     0.14   0.939
  SC_1114082920             72.75       0.00       0.00       2.97      64.84       3.44      68.28        0.10     0.12   0.939
  SC_2015055466             72.75       0.00       0.00       9.06      52.14      10.52      62.66        0.04     0.05   0.861
  SC_7127803499             72.75       0.00       0.00      10.75      48.53      12.48      61.01        0.02     0.03   0.839
  SC_7127803500             72.75       0.00       0.00      11.85      46.50      13.79      60.30        0.08     0.11   0.829
  SC_7127803501             72.75       0.00       0.00       9.25      51.83      10.76      62.59        0.03     0.04   0.860
  SC_7127803502             72.75       0.00       0.00      13.48      43.19      15.67      58.86        0.07     0.09   0.809
  SC_2015055473             72.75       0.00       0.00       0.00      70.78       0.00      70.78        0.00     0.01   0.973
  SC_2015055474             72.75       0.00       0.00      34.18       0.00      39.71      39.71        0.00     0.01   0.546
  SC_2015055477             72.75       0.00       0.00      34.25       0.00      39.86      39.86        0.01     0.01   0.548
  SC_2015055479             72.75       0.00       0.00       5.10      60.19       5.98      66.17        0.01     0.01   0.910
  SC_2015055480             72.75       0.00       0.00       0.51      69.91       0.62      70.53        0.05     0.05   0.969
  SC_4850513532             72.75       0.00       0.00       6.89      56.88       8.00      64.88        0.18     0.23   0.892
  SC_1116763772             72.75       0.00       0.00      24.14      21.84      27.36      49.19        0.27     0.38   0.676
  SC_2015055486             72.75       0.00       0.00       7.39      55.56       8.58      64.14        0.05     0.06   0.882
  SC_4850513535             72.75       0.00       0.00       9.73      50.77      11.32      62.10        0.10     0.13   0.854
  SC_2015055488             72.75       0.00       0.00       0.00      71.04       0.00      71.04        0.09     0.11   0.977
  SC_4850513536             72.75       0.00       0.00       9.53      51.22      11.10      62.31        0.13     0.17   0.857
  SC_4850513537             72.75       0.00       0.00       1.08      68.98       1.26      70.24        0.26     0.30   0.966
  SC_2015055491             72.75       0.00       0.00       2.04      66.74       2.38      69.13        0.08     0.09   0.950
  SC_2994089605             72.75       0.00       0.00       0.27      70.95       0.32      71.27        0.40     0.47   0.980
  SC_1196684936             72.75       0.00       0.00      28.48      13.89      31.10      44.99        0.51     0.67   0.618
  SC_1196684938             72.75       0.00       0.00      11.59      47.53      13.30      60.82        0.61     0.79   0.836
  SC_2055265930             72.75       0.00       0.00      16.76      36.47      19.44      55.91        0.14     0.20   0.768
  SC_2055265931             72.75       0.00       0.00      15.18      39.56      17.67      57.23        0.11     0.15   0.787
  SC_4073809549             72.75       0.00       0.00       9.03      52.43      10.51      62.95        0.21     0.27   0.865
  SC_2015055502             72.75       0.00       0.00       0.00      70.80       0.00      70.80        0.01     0.01   0.973
  SC_4073809551             72.75       0.00       0.00       1.76      67.39       2.05      69.44        0.08     0.09   0.955
  SC_4073809552             72.75       0.00       0.00       0.37      70.35       0.45      70.80        0.14     0.17   0.973
  SC_4073809553             72.75       0.00       0.00       0.00      70.92       0.00      70.92        0.04     0.04   0.975
  SC_4073809554             72.75       0.00       0.00       0.11      71.14       0.14      71.28        0.21     0.25   0.980
  SC_2015055507             72.75       0.00       0.00       4.59      61.27       5.36      66.63        0.02     0.02   0.916
  SC_2015055508             72.75       0.00       0.00       6.83      56.79       7.93      64.72        0.07     0.09   0.890
  SC_4073809555             72.75       0.00       0.00       2.24      66.80       2.60      69.39        0.59     0.70   0.954
  SC_2055265936             72.75       0.00       0.00      25.69      18.24      29.62      47.85        0.06     0.10   0.658
  SC_2015055511             72.75       0.00       0.00       0.00      70.85       0.00      70.85        0.02     0.03   0.974
  SC_2015055514             72.75       0.00       0.00       2.04      66.74       2.38      69.13        0.11     0.13   0.950
  SC_1116763803             72.75       0.00       0.00      23.16      23.86      26.23      50.09        0.39     0.56   0.689
  SC_2015055516             72.75       0.00       0.00      34.19       0.00      39.75      39.75        0.00     0.01   0.546
  SC_4073809566             72.75       0.00       0.00       2.15      66.39       2.54      68.94        0.04     0.04   0.948
  SC_2015055519             72.75       0.00       0.00       0.00      70.86       0.00      70.86        0.02     0.02   0.974
  SC_4073809567             72.75       0.00       0.00       0.68      69.51       0.83      70.34        0.03     0.03   0.967
  SC_4073809568             72.75       0.00       0.00       1.08      68.97       1.27      70.24        0.23     0.27   0.965
  SC_4073809570             72.75       0.00       0.00       2.89      65.45       3.35      68.80        0.53     0.63   0.946
  SC_1196152483             72.75       0.00       0.00      11.15      48.01      12.97      60.98        0.15     0.20   0.838
  SC_2015055524             72.75       0.00       0.00      34.10       0.00      39.53      39.53        0.00     0.00   0.543
  SC_1195599528             72.75       0.00       0.00      11.36      47.46      13.23      60.69        0.08     0.11   0.834
  SC_2015055529             72.75       0.00       0.00       3.74      63.05       4.38      67.43        0.01     0.02   0.927
  SC_2015055532             72.75       0.00       0.00       3.05      64.43       3.67      68.10        0.01     0.01   0.936
  SC_2045392558             72.75       0.00       0.00       3.23      64.23       3.76      67.99        0.06     0.07   0.935
  SC_4073809585             72.75       0.00       0.00      16.26      37.57      18.82      56.39        0.35     0.48   0.775
  SC_2015055541             72.75       0.00       0.00       1.70      67.28       2.05      69.33        0.02     0.02   0.953
  SC_559615670              72.75       0.00       0.00      17.51      34.72      20.39      55.10        0.06     0.09   0.757
  SC_1662269111             72.75       0.00       0.00       9.99      50.23      11.62      61.86        0.10     0.14   0.850
  SC_2015055544             72.75       0.00       0.00       3.06      64.47       3.60      68.07        0.03     0.04   0.936
  SC_478815933              72.75       0.00       0.00      34.09       0.00      39.52      39.52        0.00     0.00   0.543
  SC_1426124478             72.75       0.00       0.00       4.84      60.98       5.61      66.59        0.12     0.15   0.915
  SC_1426124477             72.75       0.00       0.00      16.01      37.92      18.62      56.55        0.23     0.33   0.777
  SC_4490069698             72.75       0.00       0.00       5.80      58.89       6.72      65.61        0.03     0.04   0.902
  SC_1194804933             72.75       0.00       0.00      14.49      41.02      16.86      57.88        0.11     0.15   0.796
  SC_1196152517             72.75       0.00       0.00      18.68      32.48      21.68      54.15        0.06     0.08   0.744
  SC_1227802316             72.75       0.00       0.00      17.65      34.54      20.52      55.06        0.07     0.11   0.757
  SC_7633000144             72.75       0.00       0.00       1.08      68.95       1.27      70.21        0.15     0.18   0.965
  SC_31000274               72.75       0.00       0.00       0.06      70.85       0.07      70.92        0.08     0.10   0.975
  SC_276092633              72.75       0.00       0.00       8.37      53.66       9.74      63.40        0.15     0.19   0.872
  SC_1194804954             72.75       0.00       0.00      13.71      42.54      15.96      58.50        0.05     0.07   0.804
  SC_31000283               72.75       0.00       0.00       4.90      60.70       5.69      66.39        0.06     0.07   0.913
  SC_31000285               72.75       0.00       0.00       0.63      69.82       0.75      70.57        0.19     0.22   0.970
  SC_31000293               72.75       0.00       0.00       0.00      70.81       0.00      70.81        0.01     0.01   0.973
  SC_31000297               72.75       0.00       0.00       0.00      70.84       0.00      70.84        0.02     0.02   0.974
  SC_276092654              72.75       0.00       0.00      26.46      16.67      30.49      47.17        0.10     0.15   0.648
  SC_1688790767             72.75       0.00       0.00      16.88      36.17      19.61      55.77        0.04     0.06   0.767
  SC_1184653041             72.75       0.00       0.00       5.44      59.50       6.34      65.84        0.01     0.01   0.905
  SC_1688790770             72.75       0.00       0.00      27.73      14.26      31.74      46.01        0.17     0.26   0.632
  SC_1688790771             72.75       0.00       0.00      21.57      26.94      24.62      51.56        0.23     0.33   0.709
  SC_31000310               72.75       0.00       0.00       0.00      71.42       0.00      71.42        0.16     0.18   0.982
  SC_1688790775             72.75       0.00       0.00      26.44      17.13      29.99      47.12        0.11     0.17   0.648
  SC_1688790776             72.75       0.00       0.00      20.32      29.05      23.61      52.65        0.05     0.08   0.724
[...]
  592                         0.11      0.12      0.11      0.13         0.10
  593                         0.11      0.11      0.12      0.09         0.07
  594                         0.06      0.06      0.38      0.01         0.01
  595                         0.08      0.08      0.10      0.01         0.01
  596                         0.01      0.01      0.06      0.01         0.01
  597                         0.10      0.10      0.11      0.01         0.01
  598                         0.03      0.03      0.61      0.01         0.01
  599                         0.06      0.06      0.60      0.02         0.02
  600                         0.05      0.05      0.06      0.01         0.01
  601                         0.07      0.07      0.07      0.21         0.07
  602                         0.12      0.12      1.89      0.05         0.05
  603                         0.16      0.16      0.16      0.01         0.01
  604                         0.06      0.06      1.29      0.01         0.01
  605                         0.10      0.10      0.38      0.01         0.01
  606                         0.14      0.16      0.14      0.10         0.04
  607                         0.04      0.09      0.04      0.12         0.04
  608                         0.04      0.04      0.05      0.03         0.01
  609                         0.13      0.13      0.13      0.10         0.09
  610                         0.07      0.07      0.31      0.01         0.01
  611                         0.02      0.02      0.03      0.03         0.01
  612                         0.03      0.03      0.20      0.04         0.03
  613                         0.07      0.07      0.42      0.04         0.04
  614                         0.02      0.11      0.02      0.19         0.02
  615                         0.14      0.22      0.14      0.24         0.12
  616                         0.14      0.14      0.27      0.07         0.07
  617                         0.09      0.09      1.86      0.01         0.01
  618                         0.18      0.19      0.19      0.22         0.13
  619                         0.11      0.11      0.28      0.05         0.04
  620                         0.12      0.19      0.12      0.19         0.08
  621                         0.11      0.11      0.13      0.01         0.01
  622                         0.12      0.12      0.12      0.06         0.07
  623                         0.11      0.11      0.19      0.01         0.01
  624                         0.07      0.12      0.07      0.19         0.06
  625                         0.05      0.05      0.23      0.01         0.01
  626                         0.12      0.12      0.12      0.14         0.09
  627                         0.05      0.05      0.23      0.01         0.01
  628                         0.07      0.07      0.09      0.01         0.01
  629                         0.01      0.01      0.07      0.01         0.01
  630                         0.09      0.09      0.44      0.01         0.01
  631                         0.06      0.06      0.09      0.01         0.01
  632                         0.14      0.14      0.65      0.05         0.04
  633                         0.10      0.10      0.14      0.01         0.01
  634                         0.13      0.13      0.14      0.01         0.01
  635                         0.12      0.12      0.13      0.01         0.01
  636                         0.14      0.14      0.15      0.01         0.01
  637                         0.10      0.10      0.79      0.01         0.01
  638                         0.07      0.07      0.13      0.01         0.01
  639                         0.05      0.05      0.10      0.01         0.01
  640                         0.04      0.04      0.45      0.01         0.01
  641                         0.04      0.08      0.04      0.10         0.04
  642                         0.08      0.08      0.99      0.03         0.03
  643                         0.09      0.09      0.10      0.09         0.01
  644                         0.04      0.04      0.32      0.01         0.01
  645                         0.11      0.11      0.12      0.01         0.01
  646                         0.11      0.11      0.11      0.07         0.06
  647                         0.02      0.02      0.23      0.01         0.01
  648                         0.12      0.12      0.13      0.05         0.05
  649                         0.15      0.15      0.15      0.23         0.14
  650                         0.01      0.01      1.88      0.01         0.01
  651                         0.09      0.09      1.88      0.01         0.01
  652                         0.01      0.01      0.09      0.01         0.01
  653                         0.01      0.01      0.02      0.01         0.01
  654                         0.01      0.16      0.01      0.21         0.01
  655                         0.13      0.13      0.14      0.12         0.12
  656                         0.13      0.14      0.13      0.16         0.13
  657                         0.17      0.18      0.18      0.09         0.04
  658                         0.13      0.14      0.13      0.21         0.13
  659                         0.19      0.19      0.19      0.13         0.09
  660                         0.17      0.17      0.18      0.01         0.03
  661                         0.10      0.10      0.12      0.01         0.01
  662                         0.13      0.13      0.15      0.01         0.01
  663                         0.11      0.11      0.15      0.01         0.01
  664                         0.14      0.15      0.15      0.12         0.04
  665                         0.21      0.22      0.21      0.11         0.08
  666                         0.14      0.14      1.63      0.01         0.01
  667                         0.12      0.12      0.14      0.01         0.01
  668                         0.11      0.11      0.14      0.01         0.01
  669                         0.11      0.11      0.13      0.03         0.01
  670                         0.06      0.06      0.11      0.01         0.01
  671                         0.04      0.04      0.33      0.01         0.01
  672                         0.16      0.37      0.16      0.53         0.15
  673                         0.37      0.42      0.37      0.52         0.37
  674                         0.11      0.11      0.28      0.01         0.01
  675                         0.04      0.04      0.06      0.01         0.01
  676                         0.20      0.20      0.20      0.11         0.06
  677                         0.07      0.07      1.28      0.01         0.01
  678                         0.18      0.18      0.19      0.08         0.05
  679                         0.20      0.21      0.23      0.11         0.09
  680                         0.12      0.12      0.25      0.01         0.01
  681                         0.12      0.12      0.12      0.10         0.08
  682                         0.12      0.12      0.13      0.12         0.11
  683                         0.07      0.07      0.29      0.01         0.01
  684                         0.12      0.12      0.12      0.16         0.12
  685                         0.15      0.15      0.28      0.02         0.02
  686                         0.12      0.13      0.12      0.12         0.10
  687                         0.12      0.12      0.13      0.04         0.05
  688                         0.10      0.10      0.11      0.01         0.01
  689                         0.08      0.08      0.10      0.01         0.01
  690                         0.14      0.14      0.29      0.04         0.03
  691                         0.11      0.11      0.16      0.01         0.01
  692                         0.09      0.09      0.12      0.02         0.01
  693                         0.12      0.12      0.13      0.02         0.01
  694                         0.12      0.12      0.14      0.01         0.01
  695                         0.10      0.10      0.29      0.03         0.02
  696                         0.20      0.22      0.20      0.32         0.19
  697                         0.01      0.01      5.31      0.01         0.01
  698                         0.07      0.07      0.13      0.01         0.01
  699                         0.01      0.01      0.07      0.01         0.01
  700                         0.05      0.05      0.07      0.01         0.01
  701                         0.17      0.18      0.17      0.25         0.17
  702                         0.01      0.01      0.22      0.01         0.01
  703                         0.08      0.15      0.08      0.15         0.08
  704                         0.17      0.17      0.64      0.01         0.01
  705                         0.22      0.22      2.14      0.01         0.01
  706                         0.22      0.23      0.22      0.02         0.02
  707                         0.01      0.01      0.09      0.01         0.01
  708                         0.19      0.19      0.19      0.30         0.17
  709                         0.19      0.20      0.19      0.21         0.14
  710                         0.04      0.04      0.28      0.01         0.01
  711                         0.18      0.18      0.18      0.19         0.16
  712                         0.01      0.01      5.37      0.01         0.01
  714                         0.01      0.01      0.05      0.01         0.01
  718                         0.01      0.01      5.32      0.01         0.01
  719                         0.04      0.04      0.15      0.01         0.01
  722                         0.06      0.08      0.06      0.12         0.06
  724                         0.04      0.04      5.36      0.01         0.01
  725                         0.08      0.08      0.10      0.06         0.01
  727                         0.06      0.06      0.12      0.03         0.01
  730                         0.01      0.01      0.02      0.01         0.01
  731                         0.05      0.05      0.09      0.01         0.01
  732                         0.04      0.04      0.08      0.01         0.01
  734                         0.06      0.06      0.11      0.01         0.01
  735                         0.06      0.06      0.07      0.01         0.01
  736                         0.01      0.01      5.35      0.01         0.01
  737                         0.01      0.01      0.06      0.01         0.01
  738                         0.04      0.04      0.07      0.01         0.01
  739                         0.12      0.12      0.16      0.02         0.01
  740                         0.12      0.12      0.15      0.04         0.01
  743                         0.01      0.01      0.26      0.01         0.01
  744                         0.09      0.09      0.17      0.01         0.01
  745                         0.06      0.06      0.12      0.01         0.01
  746                         0.07      0.07      0.11      0.01         0.01
  747                         0.06      0.06      0.08      0.01         0.01
  748                         0.01      0.01      0.11      0.01         0.01
  749                         0.09      0.09      0.14      0.01         0.01
  750                         0.06      0.06      0.09      0.01         0.01
  751                         0.12      0.12      0.20      0.01         0.01
  752                         0.10      0.10      0.12      0.06         0.01
  753                         0.11      0.11      0.28      0.01         0.01
  754                         0.01      0.01      0.08      0.01         0.01
  755                         0.06      0.06      0.10      0.01         0.01
  756                         0.15      0.15      0.41      0.01         0.01
  758                         0.12      0.12      0.16      0.01         0.01
  759                         0.08      0.08      0.11      0.01         0.01
  760                         0.11      0.11      0.14      0.01         0.01
  761                         0.10      0.10      0.36      0.01         0.01
  763                         0.13      0.13      0.22      0.12         0.01
  764                         0.09      0.09      0.14      0.01         0.01
  765                         0.01      0.01      0.06      0.01         0.01
  766                         0.15      0.15      0.69      0.01         0.01
  767                         0.09      0.09      0.11      0.01         0.01
  768                         0.06      0.06      0.07      0.01         0.01
  769                         0.01      0.01      0.07      0.01         0.01
  770                         0.04      0.04      0.25      0.01         0.01
  774                         0.22      0.24      0.28      0.28         0.22
  775                         0.06      0.06      0.25      0.01         0.01
  776                         0.28      0.28      1.16      0.01         0.01
  777                         0.01      0.01      0.19      0.01         0.01
  778                         0.08      0.08      5.36      0.01         0.01
  780                         0.01      0.01      0.07      0.01         0.01
  781                         0.05      0.05      0.08      0.01         0.01
  783                         0.01      0.01      5.38      0.01         0.01
  785                         0.01      0.01      5.37      0.01         0.01
  789                         0.01      0.01      0.08      0.01         0.01
  790                         0.01      0.01      0.12      0.01         0.01
  791                         0.01      0.01      0.07      0.01         0.01
  792                         0.01      0.01      0.16      0.01         0.01
  793                         0.01      0.01      0.14      0.01         0.01
  794                         0.06      0.06      0.12      0.01         0.01
  795                         0.13      0.13      0.19      0.01         0.01
  802                         0.01      0.01      5.40      0.01         0.01
  805                         0.01      0.01      5.38      0.01         0.01
  806                         0.09      0.09      0.11      0.08         0.01
  807                         0.10      0.10      0.15      0.01         0.01
  809                         0.01      0.01      0.15      0.01         0.01
  810                         0.11      0.11      0.14      0.09         0.01
  811                         0.06      0.06      0.11      0.02         0.01
  812                         0.11      0.11      0.14      0.01         0.01
  813                         0.19      0.19      0.21      0.01         0.01
  814                         0.01      0.01      0.14      0.01         0.01
  819                         0.01      0.01      5.34      0.01         0.01
  820                         0.07      0.07      0.13      0.01         0.01
  821                         0.11      0.11      0.16      0.10         0.01
  822                         0.01      0.01      0.81      0.01         0.01
  823                         0.09      0.09      0.14      0.11         0.01
  826                         0.01      0.01      0.08      0.01         0.01
  829                         0.11      0.11      0.14      0.04         0.01
  833                         0.01      0.01      5.34      0.01         0.01
  836                         0.01      0.01      5.39      0.01         0.01
  837                         0.01      0.01      5.36      0.01         0.01
  839                         0.12      0.12      5.33      0.01         0.01
  840                         0.09      0.09      0.16      0.02         0.01
  845                         0.07      0.07      0.10      0.01         0.01
  846                         0.13      0.13      0.16      0.01         0.01
  847                         0.09      0.09      0.15      0.01         0.01
  850                         0.14      0.14      0.30      0.01         0.01
  851                         0.22      0.22      0.30      0.01         0.01
  852                         0.19      0.19      0.25      0.07         0.05
  857                         0.01      0.01      5.32      0.01         0.01
  858                         0.11      0.11      5.33      0.01         0.01
  859                         0.17      0.17      0.20      0.01         0.01
  860                         0.12      0.12      0.21      0.01         0.01
  861                         0.11      0.11      0.20      0.01         0.01
  862                         0.08      0.08      0.11      0.01         0.01
  863                         0.03      0.03      5.37      0.01         0.01
  865                         0.01      0.01      5.39      0.01         0.01
  866                         0.01      0.01      5.30      0.01         0.01
  867                         0.01      0.01      5.33      0.01         0.01
  868                         0.06      0.06      5.30      0.01         0.01
  869                         0.12      0.12      0.22      0.12         0.01
  870                         0.06      0.06      0.14      0.01         0.01
  871                         0.06      0.06      0.11      0.01         0.01
  872                         0.02      0.02      0.16      0.01         0.01
  873                         0.02      0.02      0.21      0.01         0.01
  874                         0.01      0.01      0.25      0.01         0.01
  876                         0.12      0.12      5.36      0.01         0.01
  878                         0.09      0.09      0.10      0.01         0.01
  879                         0.07      0.07      0.09      0.01         0.01
  880                         0.01      0.01      0.14      0.01         0.01
  881                         0.01      0.01      0.11      0.01         0.01
  882                         0.06      0.06      0.12      0.06         0.01
  883                         0.05      0.06      0.05      0.08         0.05
  886                         0.10      0.10      5.33      0.01         0.01
  887                         0.01      0.01      0.16      0.01         0.01
  888                         0.01      0.01      5.37      0.04         0.01
  889                         0.01      0.01      5.38      0.01         0.01
  890                         0.01      0.01      5.34      0.01         0.01
  893                         0.10      0.10      0.11      0.01         0.01
  894                         0.11      0.11      0.12      0.01         0.01
  895                         0.19      0.19      0.26      0.01         0.01
  896                         0.04      0.04      5.36      0.01         0.01
  897                         0.10      0.10      0.16      0.01         0.01
  899                         0.12      0.12      0.25      0.08         0.01
  900                         0.08      0.08      0.20      0.03         0.01
  901                         0.08      0.08      0.11      0.01         0.01
  902                         0.01      0.01      5.33      0.01         0.01
  903                         0.10      0.10      0.11      0.05         0.01
  904                         0.07      0.07      0.14      0.01         0.01
  905                         0.01      0.01      0.18      0.01         0.01
  906                         0.03      0.03      5.37      0.01         0.01
  907                         0.01      0.01      5.38      0.01         0.01
  908                         0.01      0.01      5.38      0.03         0.01
  909                         0.01      0.01      0.07      0.01         0.01
  911                         0.03      0.03      5.41      0.05         0.01
  

  Analysis begun on:  Wed Dec 22 15:55:17 2021
  Analysis ended on:  Wed Dec 22 15:55:40 2021
  Total elapsed time: 00:00:23